Circuit: * Z:\duncan\EDA\BassedMate\V1\LTSpice\InputBuffer.asc

Direct Newton iteration failed to find .op point.  (Use ".option noopiter" to skip.)
Starting Gmin stepping
Gmin = 10
Gmin = 1.07374
Gmin = 0.115292
Gmin = 0.0123794
Gmin = 0.00132923
Gmin = 0.000142725
Gmin = 1.5325e-005
Gmin = 1.6455e-006
Gmin = 1.76685e-007
Gmin = 1.89714e-008
vernier = 0.5
vernier = 0.25
vernier = 0.125
Gmin = 1.10812e-008
vernier = 0.0625
vernier = 0.03125
vernier = 0.015625
vernier = 0.0078125
vernier = 0.00390625
vernier = 0.00195313
Gmin = 1.10731e-008
vernier = 0.00260417
Gmin = 1.10085e-008
vernier = 0.00347222
vernier = 0.00462963
Gmin = 1.09008e-008
vernier = 0.00617283
vernier = 0.00823044
Gmin = 1.07312e-008
vernier = 0.0109739
Gmin = 1.04698e-008
vernier = 0.0146319
vernier = 0.0195092
Gmin = 1.00455e-008
vernier = 0.0260122
vernier = 0.034683
Gmin = 9.40495e-009
vernier = 0.046244
vernier = 0.023122
Gmin = 8.87863e-009
vernier = 0.0308293
vernier = 0.0411057
vernier = 0.0205529
Gmin = 8.38708e-009
vernier = 0.0274038
Gmin = 7.88708e-009
vernier = 0.0365384
vernier = 0.0182692
vernier = 0.0243589
Gmin = 7.57026e-009
vernier = 0.0324786
vernier = 0.0162393
Gmin = 7.28455e-009
vernier = 0.0216524
vernier = 0.0288698
vernier = 0.0144349
Gmin = 7.00175e-009
vernier = 0.0192465
vernier = 0.025662
Gmin = 6.68695e-009
vernier = 0.012831
vernier = 0.017108
Gmin = 6.51084e-009
vernier = 0.0228107
vernier = 0.0114053
vernier = 0.0152071
Gmin = 6.34015e-009
vernier = 0.0202762
vernier = 0.0101381
Gmin = 6.17393e-009
vernier = 0.0135174
vernier = 0.0180232
Gmin = 5.96578e-009
vernier = 0.024031
vernier = 0.0120155
Gmin = 5.78957e-009
vernier = 0.0160207
vernier = 0.0213609
vernier = 0.0106804
Gmin = 5.62044e-009
vernier = 0.0142406
Gmin = 5.44349e-009
vernier = 0.0189874
vernier = 0.00949371
vernier = 0.0126583
Gmin = 5.3286e-009
vernier = 0.0168777
vernier = 0.00843885
Gmin = 5.223e-009
vernier = 0.0112518
vernier = 0.0150024
Gmin = 5.05938e-009
vernier = 0.0200032
vernier = 0.0100016
vernier = 0.0133355
Gmin = 4.94285e-009
vernier = 0.0177806
vernier = 0.0088903
Gmin = 4.82901e-009
vernier = 0.0118537
vernier = 0.015805
vernier = 0.00790249
Gmin = 4.72301e-009
vernier = 0.0105366
Gmin = 4.61552e-009
vernier = 0.0140489
vernier = 0.00702443
vernier = 0.0093659
Gmin = 4.54189e-009
vernier = 0.0124879
Gmin = 4.41623e-009
vernier = 0.0166505
vernier = 0.00832524
vernier = 0.0111003
Gmin = 4.33437e-009
vernier = 0.0148004
vernier = 0.00740021
Gmin = 4.25894e-009
vernier = 0.00986695
vernier = 0.0131559
vernier = 0.00657796
Gmin = 4.18268e-009
vernier = 0.00877062
vernier = 0.0116942
Gmin = 4.0958e-009
vernier = 0.0155922
vernier = 0.0077961
Gmin = 4.01294e-009
vernier = 0.0103948
vernier = 0.0138597
vernier = 0.00692986
Gmin = 3.93558e-009
vernier = 0.00923982
Gmin = 3.85691e-009
vernier = 0.0123198
vernier = 0.00615988
vernier = 0.00821317
Gmin = 3.8029e-009
vernier = 0.0109509
vernier = 0.00547544
Gmin = 3.75124e-009
vernier = 0.00730059
vernier = 0.00973411
Gmin = 3.67843e-009
vernier = 0.0129788
vernier = 0.00648941
Gmin = 3.62223e-009
vernier = 0.00865254
vernier = 0.0115367
vernier = 0.00576836
Gmin = 3.56528e-009
vernier = 0.00769114
vernier = 0.0102549
Gmin = 3.50025e-009
vernier = 0.00512743
vernier = 0.00683657
Gmin = 3.46308e-009
vernier = 0.00911542
vernier = 0.0121539
vernier = 0.00607695
Gmin = 3.40445e-009
vernier = 0.00810259
Gmin = 3.3447e-009
vernier = 0.0108035
vernier = 0.00540173
vernier = 0.0072023
Gmin = 3.30358e-009
vernier = 0.00960307
vernier = 0.00480153
Gmin = 3.26419e-009
vernier = 0.00640204
vernier = 0.00853606
Gmin = 3.20856e-009
vernier = 0.0113814
vernier = 0.0056907
Gmin = 3.16553e-009
vernier = 0.0075876
vernier = 0.0101168
vernier = 0.0050584
Gmin = 3.12183e-009
vernier = 0.00674453
vernier = 0.00899271
Gmin = 3.07184e-009
vernier = 0.00449635
vernier = 0.00599514
Gmin = 3.04321e-009
vernier = 0.00799351
vernier = 0.010658
vernier = 0.00532901
Gmin = 2.99798e-009
vernier = 0.00710534
Gmin = 2.95178e-009
vernier = 0.00947379
vernier = 0.00473689
vernier = 0.00631586
Gmin = 2.91993e-009
vernier = 0.00842114
vernier = 0.00421057
Gmin = 2.88938e-009
vernier = 0.00561409
vernier = 0.00748545
Gmin = 2.84615e-009
vernier = 0.0099806
vernier = 0.0049903
Gmin = 2.81264e-009
vernier = 0.00665373
vernier = 0.00887164
vernier = 0.00443582
Gmin = 2.77856e-009
vernier = 0.00591443
vernier = 0.0078859
Gmin = 2.7395e-009
vernier = 0.00394295
vernier = 0.00525726
Gmin = 2.7171e-009
vernier = 0.00700968
vernier = 0.00934624
vernier = 0.00467312
Gmin = 2.68165e-009
vernier = 0.00623083
Gmin = 2.64537e-009
vernier = 0.00830777
vernier = 0.00415388
vernier = 0.00553851
Gmin = 2.62032e-009
vernier = 0.00738468
vernier = 0.00369234
Gmin = 2.59626e-009
vernier = 0.00492312
vernier = 0.00656416
Gmin = 2.56216e-009
vernier = 0.00875221
vernier = 0.0043761
Gmin = 2.53569e-009
vernier = 0.0058348
vernier = 0.00777973
vernier = 0.00388987
Gmin = 2.50872e-009
vernier = 0.00518649
vernier = 0.00691532
Gmin = 2.47776e-009
vernier = 0.00345766
vernier = 0.00461021
Gmin = 2.45999e-009
vernier = 0.00614694
vernier = 0.00819592
vernier = 0.00409796
Gmin = 2.43182e-009
vernier = 0.00546395
Gmin = 2.40294e-009
vernier = 0.00728526
vernier = 0.00364263
vernier = 0.00485684
Gmin = 2.38298e-009
vernier = 0.00647579
Gmin = 2.34853e-009
vernier = 0.00863438
vernier = 0.00431719
vernier = 0.00575625
Gmin = 2.32584e-009
vernier = 0.007675
vernier = 0.0038375
Gmin = 2.30475e-009
vernier = 0.00511666
vernier = 0.00682222
vernier = 0.00341111
Gmin = 2.28325e-009
vernier = 0.00454814
vernier = 0.00606419
Gmin = 2.25852e-009
vernier = 0.00808559
vernier = 0.00404279
Gmin = 2.23469e-009
vernier = 0.00539039
vernier = 0.00718718
vernier = 0.00359359
Gmin = 2.21224e-009
vernier = 0.00479145
Gmin = 2.18918e-009
vernier = 0.0063886
vernier = 0.0031943
vernier = 0.00425907
Gmin = 2.17322e-009
vernier = 0.00567876
Gmin = 2.14565e-009
vernier = 0.00757167
vernier = 0.00378584
vernier = 0.00504778
Gmin = 2.12746e-009
vernier = 0.00673037
vernier = 0.00336519
Gmin = 2.11053e-009
vernier = 0.00448691
vernier = 0.00598255
vernier = 0.00299128
vernier = 0.00149564
Gmin = 2.0956e-009
vernier = 0.00199418
Gmin = 2.08622e-009
vernier = 0.00265891
vernier = 0.00354521
Gmin = 2.07057e-009
vernier = 0.00472695
vernier = 0.0063026
vernier = 0.0031513
Gmin = 2.05231e-009
vernier = 0.00157565
vernier = 0.00210087
Gmin = 2.04397e-009
vernier = 0.00280115
vernier = 0.00373487
Gmin = 2.02948e-009
vernier = 0.00497983
Gmin = 2.00688e-009
vernier = 0.00663977
vernier = 0.00331988
vernier = 0.00442651
Gmin = 1.99195e-009
vernier = 0.00590201
vernier = 0.00295101
Gmin = 1.97804e-009
vernier = 0.00393467
vernier = 0.00524623
Gmin = 1.95613e-009
vernier = 0.00699497
vernier = 0.00349749
vernier = 0.00466331
Gmin = 1.94024e-009
vernier = 0.00621775
vernier = 0.00310887
vernier = 0.00155444
Gmin = 1.92747e-009
vernier = 0.00207258
vernier = 0.00276344
Gmin = 1.91792e-009
vernier = 0.00368459
Gmin = 1.90253e-009
vernier = 0.00491278
vernier = 0.00655038
vernier = 0.00327519
Gmin = 1.88529e-009
vernier = 0.00436692
Gmin = 1.86687e-009
vernier = 0.00582255
vernier = 0.00291128
vernier = 0.00145564
vernier = 0.00194085
Gmin = 1.86167e-009
vernier = 0.0025878
Gmin = 1.85086e-009
vernier = 0.0034504
vernier = 0.00460053
Gmin = 1.83287e-009
vernier = 0.00613404
vernier = 0.00306702
vernier = 0.00408936
Gmin = 1.8198e-009
vernier = 0.00545248
vernier = 0.00272624
Gmin = 1.80683e-009
vernier = 0.00363498
vernier = 0.00484665
Gmin = 1.79022e-009
vernier = 0.00646219
vernier = 0.0032311
Gmin = 1.77583e-009
vernier = 0.00430813
vernier = 0.00574417
vernier = 0.00287208
vernier = 0.00143604
Gmin = 1.76297e-009
vernier = 0.00191472
Gmin = 1.7556e-009
vernier = 0.00255296
vernier = 0.00340395
Gmin = 1.7436e-009
vernier = 0.0045386
vernier = 0.00605146
Gmin = 1.72476e-009
vernier = 0.00302573
vernier = 0.00403431
Gmin = 1.71392e-009
vernier = 0.00537907
vernier = 0.00268954
vernier = 0.00358605
Gmin = 1.70321e-009
vernier = 0.0047814
vernier = 0.0023907
Gmin = 1.69255e-009
vernier = 0.0031876
vernier = 0.00425013
Gmin = 1.6789e-009
vernier = 0.00566684
vernier = 0.00283342
Gmin = 1.66706e-009
vernier = 0.00377789
vernier = 0.00503719
vernier = 0.00251859
Gmin = 1.65543e-009
vernier = 0.00335812
Gmin = 1.64297e-009
vernier = 0.0044775
vernier = 0.00596999
vernier = 0.002985
Gmin = 1.62955e-009
vernier = 0.00397999
vernier = 0.00530666
Gmin = 1.61409e-009
vernier = 0.00265333
vernier = 0.00353777
Gmin = 1.60519e-009
vernier = 0.00471703
vernier = 0.00235851
vernier = 0.00314468
Gmin = 1.59639e-009
vernier = 0.00419291
Gmin = 1.58182e-009
vernier = 0.00559055
vernier = 0.00279527
vernier = 0.00372703
Gmin = 1.57172e-009
vernier = 0.00496937
vernier = 0.00248469
Gmin = 1.56199e-009
vernier = 0.00331291
vernier = 0.00441722
vernier = 0.00220861
Gmin = 1.55243e-009
vernier = 0.00294481
Gmin = 1.54218e-009
vernier = 0.00392641
vernier = 0.00523522
vernier = 0.00261761
Gmin = 1.53113e-009
vernier = 0.00349014
vernier = 0.00465352
Gmin = 1.51838e-009
vernier = 0.00232676
vernier = 0.00310235
Gmin = 1.51104e-009
vernier = 0.00413646
vernier = 0.00206823
vernier = 0.00275764
Gmin = 1.50377e-009
vernier = 0.00367685
Gmin = 1.49173e-009
vernier = 0.00490247
vernier = 0.00245124
vernier = 0.00326831
Gmin = 1.48338e-009
vernier = 0.00435775
vernier = 0.00217887
Gmin = 1.47532e-009
vernier = 0.00290517
vernier = 0.00387355
Gmin = 1.46385e-009
vernier = 0.00516474
vernier = 0.00258237
Gmin = 1.4549e-009
vernier = 0.00344316
vernier = 0.00459087
vernier = 0.00229544
Gmin = 1.44575e-009
vernier = 0.00306058
vernier = 0.00408078
Gmin = 1.43519e-009
vernier = 0.00204039
vernier = 0.00272052
Gmin = 1.42911e-009
vernier = 0.00362735
vernier = 0.00483647
vernier = 0.00241824
Gmin = 1.41943e-009
vernier = 0.00322431
Gmin = 1.40945e-009
vernier = 0.00429908
vernier = 0.00214954
vernier = 0.00286605
Gmin = 1.40253e-009
vernier = 0.00382141
Gmin = 1.39053e-009
vernier = 0.00509521
vernier = 0.0025476
vernier = 0.0033968
Gmin = 1.38258e-009
vernier = 0.00452907
vernier = 0.00226453
Gmin = 1.37517e-009
vernier = 0.00301938
vernier = 0.00402584
vernier = 0.00201292
Gmin = 1.36758e-009
vernier = 0.00268389
vernier = 0.00357852
Gmin = 1.35882e-009
vernier = 0.00477136
vernier = 0.00238568
Gmin = 1.35034e-009
vernier = 0.00318091
vernier = 0.00424121
vernier = 0.0021206
Gmin = 1.34231e-009
vernier = 0.00282747
Gmin = 1.33404e-009
vernier = 0.00376996
vernier = 0.00188498
vernier = 0.00251331
Gmin = 1.32829e-009
vernier = 0.00335107
Gmin = 1.31831e-009
vernier = 0.0044681
vernier = 0.00223405
vernier = 0.00297873
Gmin = 1.31171e-009
vernier = 0.00397164
vernier = 0.00198582
Gmin = 1.30554e-009
vernier = 0.00264776
vernier = 0.00353034
Gmin = 1.29578e-009
vernier = 0.00470712
vernier = 0.00235356
vernier = 0.00313808
Gmin = 1.28869e-009
vernier = 0.00418411
vernier = 0.00209205
Gmin = 1.28163e-009
vernier = 0.00278941
vernier = 0.00371921
vernier = 0.0018596
Gmin = 1.27495e-009
vernier = 0.00247947
Gmin = 1.26806e-009
vernier = 0.00330596
vernier = 0.00440794
vernier = 0.00220397
Gmin = 1.26031e-009
vernier = 0.00293863
Gmin = 1.25201e-009
vernier = 0.00391817
vernier = 0.00195909
vernier = 0.00261211
Gmin = 1.2465e-009
vernier = 0.00348282
vernier = 0.00174141
Gmin = 1.24136e-009
vernier = 0.00232188
vernier = 0.00309584
Gmin = 1.23322e-009
vernier = 0.00412778
vernier = 0.00206389
vernier = 0.00275185
Gmin = 1.2273e-009
vernier = 0.00366914
vernier = 0.00183457
Gmin = 1.2214e-009
vernier = 0.00244609
vernier = 0.00326145
Gmin = 1.21384e-009
vernier = 0.0043486
vernier = 0.0021743
Gmin = 1.20726e-009
vernier = 0.00289907
vernier = 0.00386542
vernier = 0.00193271
Gmin = 1.20079e-009
vernier = 0.00257695
Gmin = 1.19385e-009
vernier = 0.00343593
vernier = 0.00171796
vernier = 0.00229062
Gmin = 1.18924e-009
vernier = 0.00305416
vernier = 0.00407221
Gmin = 1.18058e-009
vernier = 0.0020361
vernier = 0.00271481
Gmin = 1.17558e-009
vernier = 0.00361974
vernier = 0.00180987
vernier = 0.00241316
Gmin = 1.17063e-009
vernier = 0.00321754
vernier = 0.00160877
Gmin = 1.1657e-009
vernier = 0.00214503
vernier = 0.00286004
Gmin = 1.15936e-009
vernier = 0.00381338
vernier = 0.00190669
Gmin = 1.15385e-009
vernier = 0.00254226
vernier = 0.00338967
vernier = 0.00169484
Gmin = 1.14842e-009
vernier = 0.00225978
Gmin = 1.1426e-009
vernier = 0.00301304
vernier = 0.00401739
vernier = 0.00200869
Gmin = 1.13631e-009
vernier = 0.00267826
vernier = 0.00357101
Gmin = 1.12904e-009
vernier = 0.0017855
vernier = 0.00238067
Gmin = 1.12485e-009
vernier = 0.00317423
vernier = 0.00158711
vernier = 0.00211615
Gmin = 1.1207e-009
vernier = 0.00282153
Gmin = 1.1138e-009
vernier = 0.00376205
vernier = 0.00188102
vernier = 0.00250803
Gmin = 1.10901e-009
vernier = 0.00334404
vernier = 0.00167202
Gmin = 1.10439e-009
vernier = 0.00222936
vernier = 0.00297248
Gmin = 1.09779e-009
vernier = 0.0039633
vernier = 0.00198165
Gmin = 1.09264e-009
vernier = 0.0026422
vernier = 0.00352293
vernier = 0.00176147
Gmin = 1.08736e-009
vernier = 0.00234862
vernier = 0.0031315
Gmin = 1.08126e-009
vernier = 0.00156575
vernier = 0.00208766
Gmin = 1.07774e-009
vernier = 0.00278355
vernier = 0.0037114
vernier = 0.0018557
Gmin = 1.07213e-009
vernier = 0.00247427
Gmin = 1.06635e-009
vernier = 0.00329902
vernier = 0.00164951
vernier = 0.00219935
Gmin = 1.06233e-009
vernier = 0.00293246
vernier = 0.00146623
Gmin = 1.05844e-009
vernier = 0.00195497
vernier = 0.00260663
Gmin = 1.05289e-009
vernier = 0.00347551
vernier = 0.00173775
Gmin = 1.04856e-009
vernier = 0.002317
vernier = 0.00308934
vernier = 0.00154467
Gmin = 1.04412e-009
vernier = 0.00205956
vernier = 0.00274608
Gmin = 1.03898e-009
vernier = 0.00366143
vernier = 0.00183072
Gmin = 1.034e-009
vernier = 0.00244096
vernier = 0.00325461
vernier = 0.0016273
Gmin = 1.02928e-009
vernier = 0.00216974
Gmin = 1.02441e-009
vernier = 0.00289298
vernier = 0.00144649
vernier = 0.00192865
Gmin = 1.02102e-009
vernier = 0.00257154
Gmin = 1.01513e-009
vernier = 0.00342872
vernier = 0.00171436
vernier = 0.00228581
Gmin = 1.01122e-009
vernier = 0.00304775
vernier = 0.00152387
Gmin = 1.00757e-009
vernier = 0.00203183
vernier = 0.00270911
Gmin = 1.00179e-009
vernier = 0.00361214
vernier = 0.00180607
vernier = 0.00240809
Gmin = 9.97574e-010
vernier = 0.00321079
vernier = 0.0016054
Gmin = 9.9338e-010
vernier = 0.00214053
vernier = 0.00285403
vernier = 0.00142702
Gmin = 9.89402e-010
vernier = 0.00190269
Gmin = 9.85294e-010
vernier = 0.00253692
vernier = 0.00338256
vernier = 0.00169128
Gmin = 9.80671e-010
vernier = 0.00225504
Gmin = 9.75709e-010
vernier = 0.00300672
vernier = 0.00150336
vernier = 0.00200448
Gmin = 9.72415e-010
vernier = 0.00267264
vernier = 0.00133632
Gmin = 9.69334e-010
vernier = 0.00178176
vernier = 0.00237567
Gmin = 9.64455e-010
vernier = 0.00316757
vernier = 0.00158378
vernier = 0.00211171
Gmin = 9.60898e-010
vernier = 0.00281561
vernier = 0.00140781
Gmin = 9.57354e-010
vernier = 0.00187707
vernier = 0.00250276
Gmin = 9.52799e-010
vernier = 0.00333702
vernier = 0.00166851
Gmin = 9.48834e-010
vernier = 0.00222468
vernier = 0.00296624
vernier = 0.00148312
Gmin = 9.44929e-010
vernier = 0.00197749
Gmin = 9.40735e-010
vernier = 0.00263665
vernier = 0.00131833
vernier = 0.00175777
Gmin = 9.37949e-010
vernier = 0.00234369
vernier = 0.00312492
Gmin = 9.32699e-010
vernier = 0.00156246
vernier = 0.00208328
Gmin = 9.29668e-010
vernier = 0.00277771
vernier = 0.00138885
vernier = 0.0018518
Gmin = 9.26661e-010
vernier = 0.00246907
Gmin = 9.21671e-010
vernier = 0.00329209
vernier = 0.00164605
vernier = 0.00219473
Gmin = 9.18202e-010
vernier = 0.0029263
vernier = 0.00146315
Gmin = 9.1485e-010
vernier = 0.00195087
vernier = 0.00260116
vernier = 0.00130058
Gmin = 9.11547e-010
vernier = 0.00173411
Gmin = 9.07998e-010
vernier = 0.00231214
vernier = 0.00308285
vernier = 0.00154143
Gmin = 9.04159e-010
vernier = 0.00205523
vernier = 0.00274031
Gmin = 8.99719e-010
vernier = 0.00137016
vernier = 0.00182687
Gmin = 8.97154e-010
vernier = 0.00243583
vernier = 0.00324777
vernier = 0.00162389
Gmin = 8.93067e-010
vernier = 0.00216518
Gmin = 8.88849e-010
vernier = 0.00288691
vernier = 0.00144345
vernier = 0.00192461
Gmin = 8.85914e-010
vernier = 0.00256614
vernier = 0.00128307
Gmin = 8.83077e-010
vernier = 0.00171076
vernier = 0.00228101
Gmin = 8.79027e-010
vernier = 0.00304135
vernier = 0.00152067
Gmin = 8.75859e-010
vernier = 0.00202757
vernier = 0.00270342
vernier = 0.00135171
Gmin = 8.7261e-010
vernier = 0.00180228
vernier = 0.00240304
Gmin = 8.68851e-010
vernier = 0.00120152
vernier = 0.00160203
Gmin = 8.6668e-010
vernier = 0.00213603
vernier = 0.00284804
vernier = 0.00142402
Gmin = 8.63216e-010
vernier = 0.0018987
Gmin = 8.59639e-010
vernier = 0.00253159
vernier = 0.0012658
vernier = 0.00168773
Gmin = 8.5715e-010
vernier = 0.0022503
Gmin = 8.52822e-010
vernier = 0.0030004
vernier = 0.0015002
vernier = 0.00200027
Gmin = 8.49949e-010
vernier = 0.00266702
vernier = 0.00133351
Gmin = 8.47262e-010
vernier = 0.00177802
vernier = 0.00237069
vernier = 0.00118534
Gmin = 8.44505e-010
vernier = 0.00158046
vernier = 0.00210728
Gmin = 8.41314e-010
vernier = 0.0028097
vernier = 0.00140485
Gmin = 8.38218e-010
vernier = 0.00187313
vernier = 0.00249751
vernier = 0.00124876
Gmin = 8.3528e-010
vernier = 0.00166501
Gmin = 8.32243e-010
vernier = 0.00222001
vernier = 0.00296001
vernier = 0.00148001
Gmin = 8.28826e-010
vernier = 0.00197334
Gmin = 8.25155e-010
vernier = 0.00263112
vernier = 0.00131556
vernier = 0.00175408
Gmin = 8.22716e-010
vernier = 0.00233877
vernier = 0.00116939
Gmin = 8.20435e-010
vernier = 0.00155918
vernier = 0.00207891
Gmin = 8.16819e-010
vernier = 0.00277188
vernier = 0.00138594
vernier = 0.00184792
Gmin = 8.14183e-010
vernier = 0.00246389
vernier = 0.00123194
Gmin = 8.11554e-010
vernier = 0.00164259
vernier = 0.00219012
Gmin = 8.08174e-010
vernier = 0.00292016
vernier = 0.00146008
Gmin = 8.0523e-010
vernier = 0.00194677
vernier = 0.0025957
vernier = 0.00129785
Gmin = 8.02329e-010
vernier = 0.00173046
Gmin = 7.99212e-010
vernier = 0.00230729
vernier = 0.00115364
vernier = 0.00153819
Gmin = 7.97141e-010
vernier = 0.00205092
vernier = 0.00273456
Gmin = 7.93234e-010
vernier = 0.00136728
vernier = 0.00182304
Gmin = 7.90978e-010
vernier = 0.00243072
vernier = 0.00121536
vernier = 0.00162048
Gmin = 7.88739e-010
vernier = 0.00216064
vernier = 0.00108032
Gmin = 7.86294e-010
vernier = 0.00144042
vernier = 0.00192057
Gmin = 7.83585e-010
vernier = 0.00256075
vernier = 0.00128038
Gmin = 7.80957e-010
vernier = 0.00170717
vernier = 0.00227622
vernier = 0.00113811
Gmin = 7.78461e-010
vernier = 0.00151748
Gmin = 7.75882e-010
vernier = 0.00202331
vernier = 0.00269774
vernier = 0.00134887
Gmin = 7.72977e-010
vernier = 0.0017985
Gmin = 7.69856e-010
vernier = 0.00239799
vernier = 0.001199
vernier = 0.00159866
Gmin = 7.67783e-010
vernier = 0.00213155
vernier = 0.00106577
Gmin = 7.65842e-010
vernier = 0.00142103
vernier = 0.00189471
Gmin = 7.62765e-010
vernier = 0.00252628
vernier = 0.00126314
vernier = 0.00168419
Gmin = 7.60521e-010
vernier = 0.00224558
vernier = 0.00112279
Gmin = 7.58283e-010
vernier = 0.00149705
vernier = 0.00199607
Gmin = 7.55404e-010
vernier = 0.00266143
vernier = 0.00133071
Gmin = 7.52896e-010
vernier = 0.00177428
vernier = 0.00236571
vernier = 0.00118286
Gmin = 7.50423e-010
vernier = 0.00157714
Gmin = 7.47765e-010
vernier = 0.00210285
vernier = 0.00105143
vernier = 0.0014019
Gmin = 7.45999e-010
vernier = 0.0018692
vernier = 0.00249227
Gmin = 7.42666e-010
vernier = 0.00124613
vernier = 0.00166151
Gmin = 7.40741e-010
vernier = 0.00221535
vernier = 0.00110767
vernier = 0.0014769
Gmin = 7.38829e-010
vernier = 0.0019692
Gmin = 7.35654e-010
vernier = 0.0026256
vernier = 0.0013128
vernier = 0.0017504
Gmin = 7.33445e-010
vernier = 0.00233386
vernier = 0.00116693
Gmin = 7.31309e-010
vernier = 0.00155591
vernier = 0.00207454
vernier = 0.00103727
Gmin = 7.29202e-010
vernier = 0.00138303
Gmin = 7.26937e-010
vernier = 0.00184404
vernier = 0.00245872
vernier = 0.00122936
Gmin = 7.24484e-010
vernier = 0.00163914
vernier = 0.00218552
Gmin = 7.21645e-010
vernier = 0.00109276
vernier = 0.00145702
Gmin = 7.20004e-010
vernier = 0.00194269
vernier = 0.00259025
vernier = 0.00129512
Gmin = 7.17387e-010
vernier = 0.00172683
Gmin = 7.14683e-010
vernier = 0.00230244
vernier = 0.00115122
vernier = 0.00153496
Gmin = 7.128e-010
vernier = 0.00204661
vernier = 0.00102331
Gmin = 7.10979e-010
vernier = 0.00136441
vernier = 0.00181921
Gmin = 7.08377e-010
vernier = 0.00242562
vernier = 0.00121281
Gmin = 7.0634e-010
vernier = 0.00161708
vernier = 0.0021561
vernier = 0.00107805
Gmin = 7.0425e-010
vernier = 0.0014374
vernier = 0.00191653
Gmin = 7.01829e-010
vernier = 0.00255538
vernier = 0.00127769
Gmin = 6.9948e-010
vernier = 0.00170358
vernier = 0.00227145
vernier = 0.00113572
Gmin = 6.97249e-010
vernier = 0.0015143
Gmin = 6.94944e-010
vernier = 0.00201906
vernier = 0.00100953
vernier = 0.00134604
Gmin = 6.93338e-010
vernier = 0.00179472
Gmin = 6.90545e-010
vernier = 0.00239296
vernier = 0.00119648
vernier = 0.00159531
Gmin = 6.88689e-010
vernier = 0.00212707
vernier = 0.00106354
Gmin = 6.86951e-010
vernier = 0.00141805
vernier = 0.00189073
vernier = 0.000945366
Gmin = 6.85168e-010
vernier = 0.00126049
vernier = 0.00168065
Gmin = 6.83102e-010
vernier = 0.00224087
vernier = 0.00112043
Gmin = 6.81097e-010
vernier = 0.00149391
vernier = 0.00199188
vernier = 0.00099594
Gmin = 6.79192e-010
vernier = 0.00132792
Gmin = 6.77222e-010
vernier = 0.00177056
vernier = 0.00236074
vernier = 0.00118037
Gmin = 6.75003e-010
vernier = 0.00157383
Gmin = 6.72617e-010
vernier = 0.00209844
vernier = 0.00104922
vernier = 0.00139896
Gmin = 6.71032e-010
vernier = 0.00186528
vernier = 0.000932639
Gmin = 6.69547e-010
vernier = 0.00124352
vernier = 0.00165802
Gmin = 6.67193e-010
vernier = 0.0022107
vernier = 0.00110535
vernier = 0.0014738
Gmin = 6.65474e-010
vernier = 0.00196506
vernier = 0.000982532
Gmin = 6.63761e-010
vernier = 0.00131004
vernier = 0.00174672
Gmin = 6.61554e-010
vernier = 0.00232896
vernier = 0.00116448
Gmin = 6.59632e-010
vernier = 0.00155264
vernier = 0.00207019
vernier = 0.00103509
Gmin = 6.57736e-010
vernier = 0.00138013
Gmin = 6.55697e-010
vernier = 0.00184017
vernier = 0.000920083
vernier = 0.00122678
Gmin = 6.54341e-010
vernier = 0.0016357
vernier = 0.00218094
Gmin = 6.51782e-010
vernier = 0.00109047
vernier = 0.00145396
Gmin = 6.50303e-010
vernier = 0.00193861
vernier = 0.000969305
vernier = 0.00129241
Gmin = 6.48834e-010
vernier = 0.00172321
Gmin = 6.46394e-010
vernier = 0.00229761
vernier = 0.0011488
vernier = 0.000574402
vernier = 0.00076587
Gmin = 6.45528e-010
vernier = 0.00102116
Gmin = 6.44088e-010
vernier = 0.00136155
vernier = 0.00181539
vernier = 0.000907697
Gmin = 6.42464e-010
vernier = 0.00121026
Gmin = 6.40717e-010
vernier = 0.00161368
vernier = 0.00215158
vernier = 0.00107579
Gmin = 6.38825e-010
vernier = 0.00143438
vernier = 0.00191251
Gmin = 6.36634e-010
vernier = 0.000956255
vernier = 0.00127501
Gmin = 6.35367e-010
vernier = 0.00170001
vernier = 0.00226668
vernier = 0.00113334
Gmin = 6.33345e-010
vernier = 0.000566669
vernier = 0.000755559
Gmin = 6.32419e-010
vernier = 0.00100741
vernier = 0.00134322
Gmin = 6.30802e-010
vernier = 0.00179095
vernier = 0.000895477
Gmin = 6.29391e-010
vernier = 0.00119397
vernier = 0.00159196
Gmin = 6.27375e-010
vernier = 0.00212261
vernier = 0.0010613
Gmin = 6.25796e-010
vernier = 0.00141507
vernier = 0.00188676
vernier = 0.000943382
Gmin = 6.24175e-010
vernier = 0.00125784
vernier = 0.00167712
Gmin = 6.22297e-010
vernier = 0.00223616
vernier = 0.00111808
vernier = 0.000559041
Gmin = 6.20821e-010
vernier = 0.000745387
vernier = 0.000993849
Gmin = 6.19713e-010
vernier = 0.00132513
Gmin = 6.1792e-010
vernier = 0.00176684
vernier = 0.000883421
vernier = 0.00117789
Gmin = 6.1667e-010
vernier = 0.00157053
Gmin = 6.14495e-010
vernier = 0.00209403
vernier = 0.00104702
vernier = 0.00139602
Gmin = 6.1305e-010
vernier = 0.00186136
vernier = 0.000930681
Gmin = 6.11696e-010
vernier = 0.00124091
vernier = 0.00165454
Gmin = 6.0955e-010
vernier = 0.00220606
vernier = 0.00110303
vernier = 0.000551514
Gmin = 6.08626e-010
vernier = 0.000735352
vernier = 0.00098047
Gmin = 6.07359e-010
vernier = 0.00130729
vernier = 0.00174306
vernier = 0.000871528
Gmin = 6.05873e-010
vernier = 0.00116204
Gmin = 6.04335e-010
vernier = 0.00154938
vernier = 0.00206584
vernier = 0.00103292
Gmin = 6.02601e-010
vernier = 0.00137723
Gmin = 6.00737e-010
vernier = 0.0018363
vernier = 0.000918152
vernier = 0.0012242
Gmin = 5.99498e-010
vernier = 0.00163227
vernier = 0.00217636
Gmin = 5.97158e-010
vernier = 0.00108818
vernier = 0.00054409
vernier = 0.000725453
Gmin = 5.96752e-010
vernier = 0.00096727
vernier = 0.00128969
Gmin = 5.95371e-010
vernier = 0.00171959
vernier = 0.000859795
Gmin = 5.94029e-010
vernier = 0.00114639
vernier = 0.00152852
Gmin = 5.92301e-010
vernier = 0.00203803
vernier = 0.00101902
Gmin = 5.90794e-010
vernier = 0.00135869
vernier = 0.00181158
vernier = 0.000905791
Gmin = 5.89308e-010
vernier = 0.00120772
Gmin = 5.87709e-010
vernier = 0.00161029
vernier = 0.00214706
vernier = 0.00107353
vernier = 0.000536765
Gmin = 5.86213e-010
vernier = 0.000715686
Gmin = 5.8527e-010
vernier = 0.000954248
vernier = 0.00127233
Gmin = 5.8369e-010
vernier = 0.00169644
vernier = 0.00084822
vernier = 0.00113096
Gmin = 5.82536e-010
vernier = 0.00150795
Gmin = 5.80618e-010
vernier = 0.00201059
vernier = 0.0010053
vernier = 0.0013404
Gmin = 5.79282e-010
vernier = 0.00178719
vernier = 0.000893597
Gmin = 5.77989e-010
vernier = 0.00119146
vernier = 0.00158862
vernier = 0.000794308
Gmin = 5.76714e-010
vernier = 0.00105908
Gmin = 5.75342e-010
vernier = 0.0014121
vernier = 0.0018828
vernier = 0.000941401
Gmin = 5.73854e-010
vernier = 0.0012552
vernier = 0.0016736
Gmin = 5.72131e-010
vernier = 0.000836801
vernier = 0.00111573
Gmin = 5.71135e-010
vernier = 0.00148765
vernier = 0.00198353
vernier = 0.000991763
Gmin = 5.69544e-010
vernier = 0.00132235
Gmin = 5.679e-010
vernier = 0.00176313
vernier = 0.000881567
vernier = 0.00117542
Gmin = 5.66754e-010
vernier = 0.00156723
vernier = 0.000783615
Gmin = 5.65644e-010
vernier = 0.00104482
vernier = 0.00139309
Gmin = 5.64059e-010
vernier = 0.00185746
vernier = 0.000928728
Gmin = 5.62816e-010
vernier = 0.0012383
vernier = 0.00165107
vernier = 0.000825535
Gmin = 5.6154e-010
vernier = 0.00110071
vernier = 0.00146762
Gmin = 5.60061e-010
vernier = 0.00195682
vernier = 0.000978411
Gmin = 5.58625e-010
vernier = 0.00130455
vernier = 0.0017394
vernier = 0.000869699
Gmin = 5.5726e-010
vernier = 0.0011596
Gmin = 5.55849e-010
vernier = 0.00154613
vernier = 0.000773065
vernier = 0.00103075
Gmin = 5.54865e-010
vernier = 0.00137434
Gmin = 5.53152e-010
vernier = 0.00183245
vernier = 0.000916225
vernier = 0.00122163
Gmin = 5.52013e-010
vernier = 0.00162884
vernier = 0.000814421
Gmin = 5.50947e-010
vernier = 0.00108589
vernier = 0.00144786
Gmin = 5.49254e-010
vernier = 0.00193048
vernier = 0.000965239
vernier = 0.00128699
Gmin = 5.48019e-010
vernier = 0.00171598
vernier = 0.00085799
Gmin = 5.46786e-010
vernier = 0.00114399
vernier = 0.00152532
vernier = 0.000762658
Gmin = 5.45615e-010
vernier = 0.00101688
Gmin = 5.44403e-010
vernier = 0.00135583
vernier = 0.00180778
vernier = 0.00090389
Gmin = 5.43036e-010
vernier = 0.00120519
Gmin = 5.41566e-010
vernier = 0.00160691
vernier = 0.000803457
vernier = 0.00107128
Gmin = 5.40588e-010
vernier = 0.00142837
vernier = 0.00190449
Gmin = 5.38741e-010
vernier = 0.000952245
vernier = 0.00126966
Gmin = 5.37673e-010
vernier = 0.00169288
vernier = 0.000846439
vernier = 0.00112859
Gmin = 5.36613e-010
vernier = 0.00150478
vernier = 0.00075239
Gmin = 5.35554e-010
vernier = 0.00100319
vernier = 0.00133758
Gmin = 5.3419e-010
vernier = 0.00178344
vernier = 0.000891721
Gmin = 5.33001e-010
vernier = 0.00118896
vernier = 0.00158528
vernier = 0.000792641
Gmin = 5.31828e-010
vernier = 0.00105685
Gmin = 5.30565e-010
vernier = 0.00140914
vernier = 0.00187885
vernier = 0.000939425
vernier = 0.000469713
Gmin = 5.29382e-010
vernier = 0.000626283
Gmin = 5.28637e-010
vernier = 0.000835044
vernier = 0.00111339
Gmin = 5.27388e-010
vernier = 0.00148452
vernier = 0.000742261
vernier = 0.000989681
Gmin = 5.26475e-010
vernier = 0.00131957
Gmin = 5.24958e-010
vernier = 0.00175943
vernier = 0.000879716
vernier = 0.00117295
Gmin = 5.23901e-010
vernier = 0.00156394
vernier = 0.00078197
Gmin = 5.22878e-010
vernier = 0.00104263
vernier = 0.00139017
Gmin = 5.21415e-010
vernier = 0.00185356
vernier = 0.000926778
vernier = 0.000463389
Gmin = 5.2063e-010
vernier = 0.000617852
vernier = 0.000823802
Gmin = 5.19767e-010
vernier = 0.0010984
vernier = 0.00146454
Gmin = 5.18401e-010
vernier = 0.000732268
vernier = 0.000976358
Gmin = 5.17611e-010
vernier = 0.00130181
vernier = 0.00173575
vernier = 0.000867873
Gmin = 5.16349e-010
vernier = 0.00115716
Gmin = 5.15044e-010
vernier = 0.00154288
vernier = 0.000771442
vernier = 0.00102859
Gmin = 5.14134e-010
vernier = 0.00137145
Gmin = 5.1255e-010
vernier = 0.0018286
vernier = 0.000914301
vernier = 0.000457151
vernier = 0.000609534
Gmin = 5.12101e-010
vernier = 0.000812712
Gmin = 5.11166e-010
vernier = 0.00108362
vernier = 0.00144482
vernier = 0.00072241
vernier = 0.000541808
Gmin = 5.10267e-010
vernier = 0.00072241
Gmin = 5.09438e-010
vernier = 0.000963213
vernier = 0.00128428
Gmin = 5.0805e-010
vernier = 0.00171238
vernier = 0.000856189
vernier = 0.000428094
Gmin = 5.07452e-010
vernier = 0.000570792
vernier = 0.000761056
Gmin = 5.06632e-010
vernier = 0.00101474
vernier = 0.00135299
Gmin = 5.05327e-010
vernier = 0.00180398
vernier = 0.000901992
vernier = 0.000450996
Gmin = 5.04474e-010
vernier = 0.000601328
vernier = 0.00080177
Gmin = 5.03703e-010
vernier = 0.00106903
Gmin = 5.02493e-010
vernier = 0.00142537
vernier = 0.000712684
vernier = 0.000534513
vernier = 0.000712684
Gmin = 5.01979e-010
vernier = 0.000950245
Gmin = 5.00907e-010
vernier = 0.00126699
vernier = 0.00168932
vernier = 0.000844662
vernier = 0.000422331
Gmin = 4.99903e-010
vernier = 0.000563108
Gmin = 4.9927e-010
vernier = 0.00075081
vernier = 0.00100108
Gmin = 4.98209e-010
vernier = 0.00133477
vernier = 0.0017797
vernier = 0.000889849
Gmin = 4.96964e-010
vernier = 0.000444924
vernier = 0.000593232
Gmin = 4.96393e-010
vernier = 0.000790976
vernier = 0.00105463
Gmin = 4.95397e-010
vernier = 0.00140618
vernier = 0.00070309
vernier = 0.000527317
Gmin = 4.94679e-010
vernier = 0.000703089
vernier = 0.000937452
Gmin = 4.93796e-010
vernier = 0.00124994
Gmin = 4.92409e-010
vernier = 0.00166658
vernier = 0.000833291
vernier = 0.000416645
vernier = 0.000555527
Gmin = 4.92016e-010
vernier = 0.000740702
Gmin = 4.91197e-010
vernier = 0.000987603
vernier = 0.0013168
Gmin = 4.89824e-010
vernier = 0.00175574
vernier = 0.000877869
vernier = 0.000438934
Gmin = 4.89234e-010
vernier = 0.000585246
vernier = 0.000780327
Gmin = 4.88423e-010
vernier = 0.00104044
vernier = 0.00138725
vernier = 0.000693624
Gmin = 4.87471e-010
vernier = 0.000520218
vernier = 0.000693624
Gmin = 4.86817e-010
vernier = 0.000924832
vernier = 0.00123311
Gmin = 4.85674e-010
vernier = 0.00164414
vernier = 0.000822072
vernier = 0.000411036
Gmin = 4.84926e-010
vernier = 0.000548048
vernier = 0.00073073
Gmin = 4.84251e-010
vernier = 0.000974307
Gmin = 4.83191e-010
vernier = 0.00129908
vernier = 0.0017321
vernier = 0.00086605
vernier = 0.000433025
Gmin = 4.82198e-010
vernier = 0.000577367
Gmin = 4.81572e-010
vernier = 0.000769822
vernier = 0.00102643
Gmin = 4.80523e-010
vernier = 0.00136857
vernier = 0.000684286
vernier = 0.000513214
Gmin = 4.79968e-010
vernier = 0.000684286
vernier = 0.000912381
Gmin = 4.79039e-010
vernier = 0.00121651
vernier = 0.00162201
vernier = 0.000811005
Gmin = 4.77948e-010
vernier = 0.000405502
vernier = 0.00054067
Gmin = 4.77447e-010
vernier = 0.000720893
vernier = 0.00096119
Gmin = 4.76573e-010
vernier = 0.00128159
Gmin = 4.75201e-010
vernier = 0.00170878
vernier = 0.000854391
vernier = 0.000427195
vernier = 0.000569594
Gmin = 4.74812e-010
vernier = 0.000759458
Gmin = 4.74002e-010
vernier = 0.00101261
vernier = 0.00135015
vernier = 0.000675074
vernier = 0.000506305
Gmin = 4.73223e-010
vernier = 0.000675073
Gmin = 4.72504e-010
vernier = 0.000900098
vernier = 0.00120013
Gmin = 4.71301e-010
vernier = 0.00160017
vernier = 0.000800086
vernier = 0.000400043
Gmin = 4.70783e-010
vernier = 0.000533391
vernier = 0.000711187
Gmin = 4.70072e-010
vernier = 0.00094825
vernier = 0.00126433
Gmin = 4.68941e-010
vernier = 0.00168578
vernier = 0.000842888
vernier = 0.000421444
Gmin = 4.682e-010
vernier = 0.000561925
vernier = 0.000749234
Gmin = 4.67532e-010
vernier = 0.000998978
Gmin = 4.66482e-010
vernier = 0.00133197
vernier = 0.000665985
vernier = 0.000499489
vernier = 0.000665985
Gmin = 4.66036e-010
vernier = 0.00088798
Gmin = 4.65106e-010
vernier = 0.00118397
vernier = 0.00157863
vernier = 0.000789315
vernier = 0.000591986
vernier = 0.00044399
Gmin = 4.64281e-010
vernier = 0.000591986
Gmin = 4.6368e-010
vernier = 0.000789314
vernier = 0.00105242
Gmin = 4.62698e-010
vernier = 0.00140323
vernier = 0.000701613
Gmin = 4.61927e-010
vernier = 0.000935483
vernier = 0.00124731
Gmin = 4.60705e-010
vernier = 0.00166308
vernier = 0.00083154
vernier = 0.00041577
Gmin = 4.60178e-010
vernier = 0.00055436
vernier = 0.000739146
Gmin = 4.59456e-010
vernier = 0.000985528
vernier = 0.00131404
vernier = 0.000657019
Gmin = 4.58608e-010
vernier = 0.000492764
vernier = 0.000657019
Gmin = 4.58025e-010
vernier = 0.000876025
vernier = 0.00116803
Gmin = 4.57006e-010
vernier = 0.00155738
vernier = 0.000778688
Gmin = 4.56117e-010
vernier = 0.00103825
vernier = 0.00138433
vernier = 0.000692167
Gmin = 4.5524e-010
vernier = 0.000922889
Gmin = 4.54296e-010
vernier = 0.00123052
vernier = 0.00164069
vernier = 0.000820345
vernier = 0.000410173
Gmin = 4.53412e-010
vernier = 0.000546897
Gmin = 4.52854e-010
vernier = 0.000729195
vernier = 0.00097226
Gmin = 4.5192e-010
vernier = 0.00129635
vernier = 0.000648173
vernier = 0.00048613
Gmin = 4.51426e-010
vernier = 0.000648173
vernier = 0.000864231
Gmin = 4.50598e-010
vernier = 0.00115231
vernier = 0.00153641
vernier = 0.000768205
Gmin = 4.49625e-010
vernier = 0.00102427
Gmin = 4.48619e-010
vernier = 0.0013657
vernier = 0.000682848
vernier = 0.000910464
Gmin = 4.47918e-010
vernier = 0.00121395
Gmin = 4.46696e-010
vernier = 0.0016186
vernier = 0.000809301
vernier = 0.000404651
vernier = 0.000539534
Gmin = 4.4635e-010
vernier = 0.000719378
Gmin = 4.45628e-010
vernier = 0.000959171
vernier = 0.00127889
vernier = 0.000639447
vernier = 0.000479585
Gmin = 4.44934e-010
vernier = 0.000639447
Gmin = 4.44294e-010
vernier = 0.000852596
vernier = 0.00113679
Gmin = 4.43222e-010
vernier = 0.00151573
vernier = 0.000757863
vernier = 0.00101048
Gmin = 4.42439e-010
vernier = 0.00134731
vernier = 0.000673655
Gmin = 4.41658e-010
vernier = 0.000898207
vernier = 0.00119761
Gmin = 4.40651e-010
vernier = 0.00159681
vernier = 0.000798406
vernier = 0.000598804
vernier = 0.000449103
Gmin = 4.40025e-010
vernier = 0.000598804
vernier = 0.000798405
Gmin = 4.39394e-010
vernier = 0.00106454
Gmin = 4.38372e-010
vernier = 0.00141939
vernier = 0.000709693
vernier = 0.000946257
Gmin = 4.3766e-010
vernier = 0.00126168
vernier = 0.000630838
vernier = 0.000473129
Gmin = 4.37091e-010
vernier = 0.000630838
vernier = 0.000841117
Gmin = 4.36391e-010
vernier = 0.00112149
Gmin = 4.35291e-010
vernier = 0.00149532
vernier = 0.000747659
vernier = 0.000996879
Gmin = 4.34559e-010
vernier = 0.00132917
vernier = 0.000664586
Gmin = 4.33874e-010
vernier = 0.000886114
vernier = 0.00118148
Gmin = 4.32786e-010
vernier = 0.00157531
vernier = 0.000787656
vernier = 0.000590742
vernier = 0.000443057
Gmin = 4.32339e-010
vernier = 0.000590742
vernier = 0.000787656
Gmin = 4.31653e-010
vernier = 0.00105021
vernier = 0.00140028
Gmin = 4.30569e-010
vernier = 0.000700138
vernier = 0.000933518
Gmin = 4.29941e-010
vernier = 0.00124469
vernier = 0.000622345
vernier = 0.000466759
Gmin = 4.2949e-010
vernier = 0.000622345
vernier = 0.000829793
Gmin = 4.28733e-010
vernier = 0.00110639
vernier = 0.00147519
vernier = 0.000737593
Gmin = 4.27845e-010
vernier = 0.000983457
Gmin = 4.26926e-010
vernier = 0.00131128
vernier = 0.000655638
vernier = 0.000874184
Gmin = 4.26285e-010
vernier = 0.00116558
Gmin = 4.25168e-010
vernier = 0.0015541
vernier = 0.000777052
vernier = 0.000582789
vernier = 0.000437092
Gmin = 0
Gmin stepping failed

Starting source stepping with srcstepmethod=0
Source Step = 3.0303%
Source Step = 33.3333%
Source Step = 63.6364%
Source Step = 93.9394%
Source stepping succeeded in finding the operating point.


Date: Thu Jun 17 17:49:04 2021
Total elapsed time: 1.630 seconds.

tnom = 27
temp = 27
method = modified trap
totiter = 82973
traniter = 29087
tranpoints = 8079
accept = 5587
rejected = 2492
matrix size = 20
fillins = 5
solver = Normal
Matrix Compiler1: 1.22 KB object code size  0.8/0.2/[0.1]
Matrix Compiler2: off  [0.3]/0.4/0.3

